[TITLE]
;;Project Title/Notes

[OPTIONS]
;;Option             Value
FLOW_UNITS           LPS
INFILTRATION         HORTON
FLOW_ROUTING         DYNWAVE
LINK_OFFSETS         DEPTH
MIN_SLOPE            0.005
ALLOW_PONDING        NO
SKIP_STEADY_STATE    NO

START_DATE           07/20/2018
START_TIME           12:00:00
REPORT_START_DATE    07/20/2018
REPORT_START_TIME    12:00:00
END_DATE             07/20/2018
END_TIME             13:00:00
SWEEP_START          01/01
SWEEP_END            12/31
DRY_DAYS             0
REPORT_STEP          00:05:00
WET_STEP             00:01:00
DRY_STEP             01:00:00
ROUTING_STEP         0:01:00 
RULE_STEP            00:00:00

INERTIAL_DAMPING     PARTIAL
NORMAL_FLOW_LIMITED  BOTH
FORCE_MAIN_EQUATION  H-W
VARIABLE_STEP        0.75
LENGTHENING_STEP     0
MIN_SURFAREA         1.167
MAX_TRIALS           8
HEAD_TOLERANCE       0.0015
SYS_FLOW_TOL         5
LAT_FLOW_TOL         5
MINIMUM_STEP         0.5
THREADS              4

[EVAPORATION]
;;Data Source    Parameters
;;-------------- ----------------
MONTHLY          0.47   0.82   1.42   3.14   4.77   5.13   5.14   4.78   3.15   2.44   1.81   0.46  
DRY_ONLY         NO

[RAINGAGES]
;;Name           Format    Interval SCF      Source    
;;-------------- --------- ------ ------ ----------
RG               VOLUME    0:05     1.0      FILE       "D:\EulerII-r5y60min.dat" CO         MM   

[SUBCATCHMENTS]
;;Name           Rain Gage        Outlet           Area     %Imperv  Width    %Slope   CurbLen  SnowPack        
;;-------------- ---------------- ---------------- -------- -------- -------- -------- -------- ----------------
S101             RG               06M5             1.94     70       400      3        0                        
S102             RG               06M40            1.22     46       115      1.5      0                        
S103             RG               06M39            2.88     44       160      6.5      0                        
S104             RG               06M60            1.66     32       150      4        0                        
S105             RG               06M64            1.13     16.8     150      8        0                        
S106             RG               06R5             2.5      21.3     212      5.8      0                        
S107             RG               06R48            1.8      29       83       4.5      0                        
S108             RG               06R1             1.23     8        155      2.8      0                        
S109             RG               06L100           1.29     26       215      4.5      0                        
S110             RG               06L71            2.93     18       180      4.5      0                        
S111             RG               06L63            1.37     14.5     90       2.5      0                        
S112             RG               06L60            1.62     20       240      4.8      0                        
S113             RG               06L57            0.93     65       138      4.5      0                        
S114             RG               06L68            0.61     15.5     65       0.85     0                        
S115             RG               06L100           0.47     85       345      0.7      0                        
S116             RG               06L31            0.18     65       165      9.5      0                        
S117             RG               06M57            0.33     88.5     20       6.5      0                        
S118             RG               06L72            0.35     74       26       0.6      0                        
S119             RG               06L61            0.54     25       15       1.5      0                        
S120             RG               06M64            3        28.3     188      1.5      0                        

[SUBAREAS]
;;Subcatchment   N-Imperv   N-Perv     S-Imperv   S-Perv     PctZero    RouteTo    PctRouted 
;;-------------- ---------- ---------- ---------- ---------- ---------- ---------- ----------
S101             0.013      0.15       1.27       2.54       25         OUTLET    
S102             0.013      0.15       1.27       2.54       25         OUTLET    
S103             0.013      0.15       1.27       2.54       25         OUTLET    
S104             0.013      0.15       1.27       2.54       25         OUTLET    
S105             0.013      0.15       1.27       2.54       25         OUTLET    
S106             0.013      0.15       1.27       2.54       25         OUTLET    
S107             0.013      0.15       1.27       2.54       25         OUTLET    
S108             0.013      0.15       1.27       2.54       25         OUTLET    
S109             0.013      0.15       1.27       2.54       25         OUTLET    
S110             0.013      0.15       1.27       2.54       25         OUTLET    
S111             0.013      0.15       1.27       2.54       25         OUTLET    
S112             0.013      0.15       1.27       2.54       25         OUTLET    
S113             0.013      0.15       1.27       2.54       25         OUTLET    
S114             0.013      0.15       1.27       2.54       25         OUTLET    
S115             0.013      0.15       1.27       2.54       25         OUTLET    
S116             0.013      0.15       1.27       2.54       25         OUTLET    
S117             0.013      0.15       1.27       2.54       25         OUTLET    
S118             0.013      0.15       1.27       2.54       25         OUTLET    
S119             0.013      0.15       1.27       2.54       25         OUTLET    
S120             0.013      0.15       1.27       2.54       25         OUTLET    

[INFILTRATION]
;;Subcatchment   Param1     Param2     Param3     Param4     Param5    
;;-------------- ---------- ---------- ---------- ---------- ----------
S101             76.2       12.7       4          7          0         
S102             76.2       12.7       4          7          0         
S103             76.2       12.7       4          7          0         
S104             76.2       12.7       4          7          0         
S105             76.2       12.7       4          7          0         
S106             76.2       12.7       4          7          0         
S107             76.2       12.7       4          7          0         
S108             76.2       12.7       4          7          0         
S109             76.2       12.7       4          7          0         
S110             76.2       12.7       4          7          0         
S111             76.2       12.7       4          7          0         
S112             76.2       12.7       4          7          0         
S113             76.2       12.7       4          7          0         
S114             76.2       12.7       4          7          0         
S115             76.2       12.7       4          7          0         
S116             76.2       12.7       4          7          0         
S117             76.2       12.7       4          7          0         
S118             76.2       12.7       4          7          0         
S119             76.2       12.7       4          7          0         
S120             76.2       12.7       4          7          0         

[JUNCTIONS]
;;Name           Elevation  MaxDepth   InitDepth  SurDepth   Aponded   
;;-------------- ---------- ---------- ---------- ---------- ----------
06L66            149.99     3.92       0          0          0         
06L58            146.51     3.64       0          0          0         
06Q5             152.93     3.2        0          0          0         
06Q187           153.52     3.43       0          0          0         
06L67            152.08     2.97       0          0          0         
06L57            146.74     3.53       0          0          0         
06L59            146.31     3.67       0          0          0         
06L121           146.9      3.45       0          0          0         
06L65            148.16     3.68       0          0          0         
06Q6             153.26     3.21       0          0          0         
06L56            146.94     3.44       0          0          0         
06Q136           159.52     3.08       0          0          0         
06R48            159.77     2.46       0          0          0         
06R6             154.62     2.27       0          0          0         
06R45            162.81     2.65       0          0          0         
06R22            156.48     3.82       0          0          0         
06R25            167.14     3.68       0          0          0         
06R103           166.95     3.83       0          0          0         
06R5             153.97     3.12       0          0          0         
06R40            166.81     3.51       0          0          0         
06R4             153.36     3.4        0          0          0         
06R3             152.77     3.22       0          0          0         
06R42            166.53     3.15       0          0          0         
06L63            143.9      3.61       0          0          0         
06L70            149.05     3.61       0          0          0         
06L60            145.95     3.62       0          0          0         
06L62            145.15     3.54       0          0          0         
06L61            145.54     3.6        0          0          0         
06L74            147.57     3.61       0          0          0         
06Q7             152.46     3.25       0          0          0         
06L64            142.75     3.63       0          0          0         
06L73            148.8      3.53       0          0          0         
06L72            150.01     3.44       0          0          0         
06L69            147.1      3.47       0          0          0         
06M38            137.84     4.18       0          0          0         
06L100           147.36     4.69       0          0          0         
06M60            148.86     2.49       0          0          0         
06L90            140.27     3.69       0          0          0         
06L92            137.39     2.84       0          0          0         
06L91            139.59     3.62       0          0          0         
06M63            144.79     3.43       0          0          0         
06L31            141.32     3.96       0          0          0         
06M54            145.63     3.72       0          0          0         
06R1             151.53     3.04       0          0          0         
06M40            138.62     3.93       0          0          0         
06L51            150.41     2.75       0          0          0         
06M61            150.92     3.01       0          0          0         
06M56            144.47     3.91       0          0          0         
06L94            131.56     3.59       0          0          0         
06L95            131.21     3.8        0          0          0         
06M5             132.05     4.04       0          0          0         
06M46            139.13     3.64       0          0          0         
06M64            144.45     2.2        0          0          0         
06M44            138.99     3.87       0          0          0         
06M58            144.16     3.22       0          0          0         
06M42            138.82     3.76       0          0          0         
06M47            139.27     3.31       0          0          0         
06R2             152.16     2.78       0          0          0         
06L71            150.94     4.23       0          0          0         
06L68            151.31     2.45       0          0          0         
06L30            141.19     3.24       0          0          0         
06L32            145.18     3.81       0          0          0         
06Q18            155.83     2.61       0          0          0         
06M55            143.83     2.79       0          0          0         
06R7             155.24     2.27       0          0          0         
06L46            140.49     2.46       0          0          0         
06M57            142.85     4.15       0          0          0         
06L44            137.2      4.25       0          0          0         
06M39            138.29     2.97       0          0          0         
06M41            138.79     3.77       0          0          0         
06L45            138.75     3.81       0          0          0         

[OUTFALLS]
;;Name           Elevation  Type       Stage Data       Gated    Route To        
;;-------------- ---------- ---------- ---------------- -------- ----------------
06L98            129.72     FREE                        NO                       
06M4             131.58     FREE                        NO                       

[CONDUITS]
;;Name           From Node        To Node          Length     Roughness  InOffset   OutOffset  InitFlow   MaxFlow   
;;-------------- ---------------- ---------------- ---------- ---------- ---------- ---------- ---------- ----------
06Q187-06Q6      06Q187           06Q6             11.3       0.013      0          0          0          0         
06Q5-06L68       06Q5             06L68            35.55      0.013      0          0          0          0         
06L72-06L73      06L72            06L73            50.71      0.013      0          0          0          0         
06Q6-06Q7        06Q6             06Q7             34.99      0.013      0          0          0          0         
06L71-06L72      06L71            06L72            50.54      0.013      0          0          0          0         
06L68-06L66      06L68            06L66            40.96      0.013      0          0          0          0         
06L67-06L68      06L67            06L68            39.89      0.013      0          0          0          0         
06L70-06L71      06L70            06L71            42.93      0.013      0          0          0          0         
06L73-06L74      06L73            06L74            50.23      0.013      0          0          0          0         
06Q7-06L71       06Q7             06L71            49.44      0.013      0          0          0          0         
06L94-06L95      06L94            06L95            28.66      0.013      0          0          0          0         
06L30-06L90      06L30            06L90            28.83      0.013      0          0          0          0         
06L58-06L59      06L58            06L59            40.03      0.013      0          0          0          0         
06L64-06L30      06L64            06L30            45.67      0.013      0          0          0          0         
06L57-06L58      06L57            06L58            39.18      0.013      0          0          0          0         
06L121-06L57     06L121           06L57            32.92      0.013      0          0          0          0         
06L92-06L94      06L92            06L94            134.35     0.013      0          0          0          0         
06L62-06L63      06L62            06L63            45.77      0.013      0          0          0          0         
06L95-06L98      06L95            06L98            40.28      0.013      0          0          0          0         
06L69-06L70      06L69            06L70            42.33      0.013      0          0          0          0         
06L63-06L64      06L63            06L64            44.3       0.013      0          0          0          0         
06L61-06L62      06L61            06L62            43.19      0.013      0          0          0          0         
06L66-06L65      06L66            06L65            42.22      0.013      0          0          0          0         
06L59-06L60      06L59            06L60            43.8       0.013      0          0          0          0         
06L90-06L91      06L90            06L91            12.38      0.013      0          0          0          0         
06L60-06L61      06L60            06L61            44.17      0.013      0          0          0          0         
06L69-06L62      06L69            06L62            42.6       0.013      0          0          0          0         
06L65-06L59      06L65            06L59            42.07      0.013      0          0          0          0         
06L56-06L121     06L56            06L121           7.28       0.013      0          0          0          0         
06L91-06L92      06L91            06L92            45.08      0.013      0          0          0          0         
06L32-06L30      06L32            06L30            84.08      0.013      0          0          0          0         
06M58-06M57      06M58            06M57            34.92      0.013      0          0          0          0         
06R42-06R45      06R42            06R45            69.54      0.013      0          0          0          0         
06L74-06L32      06L74            06L32            50.31      0.013      0          0          0          0         
06L100-06L46     06L100           06L46            119.28     0.013      0          0          0          0         
06R48-06Q18      06R48            06Q18            73.46      0.013      0          0          0          0         
06R45-06R48      06R45            06R48            127.71     0.013      0          0          0          0         
06R6-06R5        06R6             06R5             40.51      0.013      0          0          0          0         
06M56-06M57      06M56            06M57            36.9       0.013      0          0          0          0         
06Q18-06L100     06Q18            06L100           117.53     0.013      0          0          0          0         
06M61-06L51      06M61            06L51            33.33      0.013      0          0          0          0         
06L51-06L100     06L51            06L100           48.6       0.013      0          0          0          0         
06R40-06R42      06R40            06R42            43.01      0.013      0          0          0          0         
06M54-06M55      06M54            06M55            38.76      0.013      0          0          0          0         
06R5-06R4        06R5             06R4             40.41      0.013      0          0          0          0         
06M55-06M63      06M55            06M63            27.64      0.013      0          0          0          0         
06Q136-06Q18     06Q136           06Q18            36.18      0.013      0          0          0          0         
06R2-06R1        06R2             06R1             39.75      0.013      0          0          0          0         
06R1-06M61       06R1             06M61            40.06      0.013      0          0          0          0         
06R4-06R3        06R4             06R3             39.89      0.013      0          0          0          0         
06R3-06R2        06R3             06R2             40.18      0.013      0          0          0          0         
06M60-06M63      06M60            06M63            41.36      0.013      0          0          0          0         
06R103-06R40     06R103           06R40            44.73      0.013      0          0          0          0         
06R22-06R7       06R22            06R7             36         0.013      0          0          0          0         
06R25-06R103     06R25            06R103           43.06      0.013      0          0          0          0         
06R7-06R6        06R7             06R6             17.81      0.013      0          0          0          0         
06L46-06L45      06L46            06L45            34.8       0.013      0          0          0          0         
06M55-06M39      06M55            06M39            119.73     0.013      0          0          0          0         
06M64-06M58      06M64            06M58            61.1       0.013      0          0          0          0         
06L31-06L46      06L31            06L46            23.59      0.013      0          0          0          0         
06M57-06M41      06M57            06M41            99.55      0.013      0          0          0          0         
06L44-06M5       06L44            06M5             172.19     0.013      0          0          0          0         
06M39-06M38      06M39            06M38            48.05      0.013      0          0          0          0         
06M38-06L44      06M38            06L44            21.51      0.013      0          0          0          0         
06M46-06M44      06M46            06M44            47.06      0.013      0          0          0          0         
06L30-06L31      06L30            06L31            5.71       0.013      0          0          0          0         
06M40-06M39      06M40            06M39            34.35      0.013      0          0          0          0         
06M47-06M46      06M47            06M46            22.85      0.013      0          0          0          0         
06M42-06M41      06M42            06M41            6.65       0.013      0          0          0          0         
06M41-06M40      06M41            06M40            33.58      0.013      0          0          0          0         
06M5-06M4        06M5             06M4             16.46      0.013      0          0          0          0         
06M44-06M42      06M44            06M42            39.33      0.013      0          0          0          0         
06L45-06L44      06L45            06L44            30.49      0.013      0          0          0          0         
06M63-06M56      06M63            06M56            9.24       0.013      0          0          0          0         

[XSECTIONS]
;;Link           Shape        Geom1            Geom2      Geom3      Geom4      Barrels    Culvert   
;;-------------- ------------ ---------------- ---------- ---------- ---------- ---------- ----------
06Q187-06Q6      EGG          0.45             0          0          0          1          0         
06Q5-06L68       EGG          0.45             0          0          0          1          0         
06L72-06L73      EGG          0.45             0          0          0          1          0         
06Q6-06Q7        EGG          0.45             0          0          0          1          0         
06L71-06L72      EGG          0.45             0          0          0          1          0         
06L68-06L66      EGG          0.45             0          0          0          1          0         
06L67-06L68      CIRCULAR     0.25             0          0          0          1          0         
06L70-06L71      EGG          0.45             0          0          0          1          0         
06L73-06L74      EGG          0.45             0          0          0          1          0         
06Q7-06L71       EGG          0.45             0          0          0          1          0         
06L94-06L95      EGG          0.6              0          0          0          1          0         
06L30-06L90      EGG          0.6              0          0          0          1          0         
06L58-06L59      EGG          0.45             0          0          0          1          0         
06L64-06L30      EGG          0.6              0          0          0          1          0         
06L57-06L58      EGG          0.45             0          0          0          1          0         
06L121-06L57     EGG          0.45             0          0          0          1          0         
06L92-06L94      EGG          0.6              0          0          0          1          0         
06L62-06L63      EGG          0.6              0          0          0          1          0         
06L95-06L98      EGG          0.6              0          0          0          1          0         
06L69-06L70      EGG          0.45             0          0          0          1          0         
06L63-06L64      EGG          0.6              0          0          0          1          0         
06L61-06L62      EGG          0.525            0          0          0          1          0         
06L66-06L65      EGG          0.45             0          0          0          1          0         
06L59-06L60      EGG          0.525            0          0          0          1          0         
06L90-06L91      EGG          0.6              0          0          0          1          0         
06L60-06L61      EGG          0.525            0          0          0          1          0         
06L69-06L62      EGG          0.45             0          0          0          1          0         
06L65-06L59      EGG          0.45             0          0          0          1          0         
06L56-06L121     EGG          0.45             0          0          0          1          0         
06L91-06L92      EGG          0.6              0          0          0          1          0         
06L32-06L30      EGG          0.45             0          0          0          1          0         
06M58-06M57      EGG          0.375            0          0          0          1          0         
06R42-06R45      EGG          0.45             0          0          0          1          0         
06L74-06L32      EGG          0.45             0          0          0          1          0         
06L100-06L46     EGG          1.05             0          0          0          1          0         
06R48-06Q18      EGG          0.45             0          0          0          1          0         
06R45-06R48      EGG          0.45             0          0          0          1          0         
06R6-06R5        EGG          0.6              0          0          0          1          0         
06M56-06M57      EGG          0.45             0          0          0          1          0         
06Q18-06L100     EGG          0.9              0          0          0          1          0         
06M61-06L51      EGG          0.6              0          0          0          1          0         
06L51-06L100     EGG          0.6              0          0          0          1          0         
06R40-06R42      EGG          0.375            0          0          0          1          0         
06M54-06M55      EGG          0.45             0          0          0          1          0         
06R5-06R4        EGG          0.6              0          0          0          1          0         
06M55-06M63      EGG          0.45             0          0          0          1          0         
06Q136-06Q18     CIRCULAR     0.3              0          0          0          1          0         
06R2-06R1        EGG          0.6              0          0          0          1          0         
06R1-06M61       EGG          0.6              0          0          0          1          0         
06R4-06R3        EGG          0.6              0          0          0          1          0         
06R3-06R2        EGG          0.6              0          0          0          1          0         
06M60-06M63      CIRCULAR     0.25             0          0          0          1          0         
06R103-06R40     EGG          0.375            0          0          0          1          0         
06R22-06R7       EGG          0.375            0          0          0          1          0         
06R25-06R103     EGG          0.375            0          0          0          1          0         
06R7-06R6        EGG          0.6              0          0          0          1          0         
06L46-06L45      EGG          1.05             0          0          0          1          0         
06M55-06M39      EGG          0.45             0          0          0          1          0         
06M64-06M58      CIRCULAR     0.3              0          0          0          1          0         
06L31-06L46      EGG          0.75             0          0          0          1          0         
06M57-06M41      EGG          0.45             0          0          0          1          0         
06L44-06M5       EGG          1.05             0          0          0          1          0         
06M39-06M38      EGG          0.525            0          0          0          1          0         
06M38-06L44      EGG          0.525            0          0          0          1          0         
06M46-06M44      EGG          0.525            0          0          0          1          0         
06L30-06L31      EGG          0.75             0          0          0          1          0         
06M40-06M39      EGG          0.45             0          0          0          1          0         
06M47-06M46      CIRCULAR     0.3              0          0          0          1          0         
06M42-06M41      EGG          0.45             0          0          0          1          0         
06M41-06M40      EGG          0.45             0          0          0          1          0         
06M5-06M4        EGG          1.05             0          0          0          1          0         
06M44-06M42      EGG          0.525            0          0          0          1          0         
06L45-06L44      EGG          1.05             0          0          0          1          0         
06M63-06M56      EGG          0.45             0          0          0          1          0         

[DWF]